34
HIrsh.log
C1  4.489427  -0.451001  -0.063469
C2  3.731270  0.696117  -0.221596
C3  2.339629  0.686054  -0.103217
C4  1.737140  -0.525776  0.206052
C5  2.470331  -1.697179  0.369241
C6  3.846293  -1.649003  0.227834
H7  5.568110  -0.436368  -0.160660
H8  1.949936  -2.616425  0.607833
O9  4.630813  -2.747343  0.371605
H10  4.084148  -3.510891  0.565590
O11  4.298419  1.897479  -0.509955
H12  5.246902  1.792606  -0.602964
O13  0.388865  -0.649204  0.342567
O14  -0.761443  2.742337  -0.458789
H15  -0.455213  3.303906  0.256718
C16  -1.817977  0.196704  0.428490
C17  -2.242428  -0.770729  -0.468910
C18  -2.754138  0.913731  1.216915
C19  -3.593828  -1.026158  -0.591025
H20  -1.530878  -1.330254  -1.060728
C21  -4.091133  0.684093  1.117207
H22  -2.385815  1.659856  1.910617
C23  -4.588774  -0.303676  0.199802
H24  -4.813608  1.224920  1.714258
O25  -4.068216  -1.938296  -1.428019
H26  -5.036376  -1.909859  -1.314476
C27  -0.360281  0.543431  0.527781
H28  -0.149281  0.947653  1.528095
C29  1.527798  1.929111  -0.335761
H30  1.636129  2.611768  0.517908
H31  1.896296  2.468697  -1.208885
C32  0.056044  1.596993  -0.518227
H33  -0.112671  1.155358  -1.503327
O34  -5.787679  -0.592128  0.033004
